48
Lattice = "8.39999961853 0.0 0.0 0.0 8.39999961853 0.0 0.0 0.0 12.6000003815" Properties=species:S:1:pos:R:3:forces:R:3 energy=-555.899463 stress="44324.590000000004 -88.44 -112.43 -88.44 44600.920000000006 281.49 -112.43 281.49 42648.37"
Ta 8.39872 8.3966 0.05505 0.06463 0.245549 -0.122629
Ta 2.17054 2.11769 12.51793 -1.187171 -0.130259 0.732895
Ta 2.0533 8.35895 2.13547 0.233297 0.276883 -0.580405
Ta 8.38008 2.10628 2.0551 0.08252 -0.095821 -0.260646
Ta 4.23293 0.07434 0.0467 -0.277801 -0.575764 -0.709591
Ta 6.2651 2.18178 0.00596 0.79823 -0.246753 -0.159608
Ta 6.25171 8.32714 2.06 0.878956 0.397963 0.635148
Ta 4.23709 2.08122 2.04351 -0.562206 0.342387 0.661272
Ta 0.01795 4.28026 0.03906 0.03593 -0.753743 -0.492226
Ta 2.17486 6.29122 12.54891 -0.292549 0.564337 0.480079
Ta 2.07869 4.28118 2.16843 0.802077 -0.587367 -0.741571
Ta 0.03245 6.22138 2.08055 -0.303096 1.061223 0.205298
Ta 0.05248 0.05717 4.13572 -0.808599 -0.191264 0.378476
Ta 2.07678 2.17993 4.13839 0.013435 -0.436677 0.322097
Ta 2.12704 8.36983 6.31443 -0.47643 0.64169 -0.334506
Ta 8.3705 2.08925 6.34697 0.005647 -0.087278 -0.862051
Ta 8.38688 0.07691 8.44598 -0.055963 -0.649155 -0.697661
Ta 2.01928 2.13994 8.43334 1.328975 0.162973 -0.03981
Ta 2.04284 0.00054 10.51116 0.153873 0.277763 0.303457
Ta 8.3396 2.16616 10.45414 0.471147 -0.416926 1.590978
Ta 4.14844 4.17913 12.54023 0.538274 0.344873 0.560429
Ta 6.2757 6.28315 12.58489 -0.093969 -0.269964 -0.315362
Ta 6.31105 4.1801 2.07691 -0.802185 0.349566 -0.345139
Ta 4.1932 6.35885 2.05181 -0.289199 -0.820619 0.167236
Ta 4.13608 8.35781 4.16416 0.306789 0.418729 -0.132841
Ta 6.25772 2.18015 4.23088 0.265817 -1.013408 -0.174927
Ta 6.21768 8.33441 6.28609 0.203365 0.059608 -0.446274
Ta 4.21646 2.0257 6.25407 -0.176754 0.397415 0.650479
Ta 4.11746 0.08256 8.45795 0.186491 -0.410856 0.068111
Ta 6.30974 2.0663 8.41949 -0.752342 -0.087175 -0.586156
Ta 6.3525 8.38938 10.49726 -0.44574 0.07188 0.558282
Ta 4.22552 2.10093 10.54512 -0.02775 -0.023834 -0.918408
Ta 8.31931 4.18624 4.12268 0.353673 0.002916 1.279805
Ta 2.07372 6.27335 4.24137 -0.117409 -0.2389 0.08123
Ta 2.14629 4.16947 6.30781 -0.615193 -0.022235 0.165676
Ta 8.34652 6.37659 6.30287 0.054827 -0.339782 -0.192988
Ta 0.03288 4.14327 8.42559 -0.136471 1.054922 -0.681011
Ta 2.01843 6.3563 8.36368 0.358704 -0.63918 0.366829
Ta 2.08465 4.24206 10.56487 -0.018445 0.035124 -1.175245
Ta 8.39771 6.35777 10.52103 -0.075528 -0.463245 -0.015453
Ta 4.18258 4.14181 4.17443 0.116808 0.364647 -0.254759
Ta 6.22019 6.23685 4.13448 0.381966 0.454078 0.397164
Ta 6.28851 4.24961 6.33299 0.186246 0.002802 0.096346
Ta 4.13463 6.26413 6.29428 0.495766 0.350443 0.359588
Ta 4.281 4.2574 8.39181 -0.903776 -0.621644 0.379359
Ta 6.28467 6.34316 8.44502 0.157149 0.143513 -0.095499
Ta 6.35243 4.1584 10.43469 -0.364583 0.937808 0.436386
Ta 4.17724 6.33497 10.52826 0.308567 0.162755 -0.541855
